Version 4.1
SHEET 1 3988 680
WIRE 496 224 304 224
WIRE 672 224 496 224
WIRE 304 336 304 224
WIRE 496 352 496 304
WIRE 608 352 496 352
WIRE 496 400 496 352
WIRE 304 480 304 416
WIRE 496 480 304 480
WIRE 672 480 496 480
FLAG 672 480 0
FLAG 0 0 0
SYMBOL voltage 304 320 R0
SYMATTR InstName V1
SYMBOL res 480 208 R0
SYMATTR InstName R1
SYMBOL res 480 384 R0
SYMATTR InstName R2
SYMBOL res 656 208 R0
SYMATTR InstName RC
SYMATTR Value 1.2K
SYMBOL res 656 384 R0
SYMATTR InstName RE
SYMATTR Value 180
SYMBOL npn 608 304 R0
SYMATTR InstName Q1
TEXT 264 544 Left 2 !.model BC548B NPN(Is=7.049f Xti=3 Eg=1.11 Vaf=62.79 Bf=250 Ise=68f Ne=1.576 Ikf=81.57m Nk=.4767 Xtb=1.5 Br=1 Isc=12.4f Nc=1.835 Ikr=3.924 Rc=.9747 Cjc=5.25p Mjc=.3147 Vjc=.5697 Fc=.5 Cje=11.5p Mje=.6715 Vje=.5 Tr=10n Tf=410.2p Itf=1.491 Xtf=40.06 Vtf=10 Vceo=30 Icrating=100m mfg=Philips)
