Version 4.1
SHEET 1 3980 680
WIRE -48 -32 -192 -32
WIRE 256 -32 -48 -32
WIRE 256 0 256 -32
WIRE -192 80 -192 -32
WIRE 256 96 256 80
WIRE -48 144 -48 48
WIRE 192 144 -48 144
WIRE -48 176 -48 144
WIRE -192 272 -192 160
WIRE -48 272 -48 256
WIRE -48 272 -192 272
WIRE 256 272 -48 272
FLAG 256 272 0
SYMBOL npn 192 96 R0
SYMATTR InstName Q1
SYMBOL res -64 -48 R0
SYMATTR InstName R2
SYMATTR Value 30K
SYMBOL res 240 -16 R0
SYMATTR InstName RC
SYMATTR Value 1.2K
SYMBOL res 240 176 R0
SYMATTR InstName RE
SYMATTR Value 180
SYMBOL res -64 160 R0
SYMATTR InstName R1
SYMATTR Value 5K
SYMBOL voltage -192 64 R0
SYMATTR InstName V1
SYMATTR Value 15
TEXT -320 408 Left 2 !.model BC548B NPN(Is=7.049f Xti=3 Eg=1.11 Vaf=62.79 Bf=250 Ise=68f Ne=1.576 Ikf=81.57m Nk=.4767 Xtb=1.5 Br=1 Isc=12.4f Nc=1.835 Ikr=3.924 Rc=.9747 Cjc=5.25p Mjc=.3147 Vjc=.5697 Fc=.5 Cje=11.5p Mje=.6715 Vje=.5 Tr=10n Tf=410.2p Itf=1.491 Xtf=40.06 Vtf=10 Vceo=30 Icrating=100m mfg=Philips)
TEXT -152 528 Left 2 !.tran 0 1 0.1
